#Aurora run path
bin_name="clash"
bin_nas="Alist"
bin_dns="mosdns"
script_run="true"
charge_control="true"

#iptables
ipv6="false"
apn_ipv6="false"
iptables_status="TProxy"
ap_list=("wlan+" "ap+" "rndis+")
intranet=(0.0.0.0/8 10.0.0.0/8 100.64.0.0/10 127.0.0.0/8 169.254.0.0/16 192.0.0.0/24 192.0.2.0/24 192.88.99.0/24 192.168.0.0/16 198.51.100.0/24 203.0.113.0/24 224.0.0.0/4 240.0.0.0/4 255.255.255.255/32 192.168.43.1/24)
intranet6=(::/128 ::1/128 ::ffff:0:0/96 100::/64 64:ff9b::/96 2001::/32 2001:10::/28 2001:20::/28 2001:db8::/32 2002::/16 fe80::/10 ff00::/8)

#update config
updateClash="false"
updateYacd="false"
updateMmdb="true"

#config path
MODPATH="/data/adb/modules/Aurora"
DATADIR="/data/adb/Aurora"
bakeup_path="/data/cache/backup"
mount_path="/data/system/Mount"
Dashboard="/data/system/Dashboard"
Services="${DATADIR}/Services.log"
Mmdb="${DATADIR}/Country.mmdb"
Yacd="${DATADIR}/Dashboard.zip"
config_path="${MODPATH}/config"

#Geodata config
if [ "${bin_name}" = "clash" ] ; then
  template="${DATADIR}/Aurora.yaml"
  updateGeoIP="true"
  updateGeoSite="true"
  GeoIP_file="${DATADIR}/GeoIP.dat"
  GeoSite_file="${DATADIR}/GeoSite.dat"
  GeoIP_url="https://raw.githubusercontent.com/Loyalsoldier/geoip/release/geoip-only-cn-private.dat"
  GeoSite_url="https://github.com/CHIZI-0618/v2ray-rules-dat/releases/latest/download/geosite.dat"
elif [ "${bin_name}" = "sing-box" ] ; then
  template="${DATADIR}/box.json"
  updateGeoIP="true"
  updateGeoSite="true"
  GeoIP_file="${DATADIR}/GeoIP.db"
  GeoSite_file="${DATADIR}/GeoSite.db"
  GeoIP_url="https://github.com/MetaCubeX/meta-rules-dat/releases/download/latest/geoip-lite.db"
  GeoSite_url="https://github.com/CHIZI-0618/v2ray-rules-dat/releases/latest/download/geosite.db"
else
  template_file="${DATADIR}/Aurora.yaml"
  updateGeoIP="false"
  updateGeoSite="false"
fi

battery_path="/sys/devices/platform/battery/power_supply/battery/input_suspend"
Nas_url="https://packages-cf.termux.dev/apt/termux-main/pool/main/a/alist/"
Yacd_url="https://github.com/MetaCubeX/Yacd-meta/archive/refs/heads/gh-pages.zip"
Mmdb_url="https://raw.githubusercontent.com/Hackl0us/GeoIP2-CN/release/Country.mmdb"